
Circuit: *

********************************************
Transient Analysis
********************************************
Doing analysis at TEMP = 27.000000 and TNOM = 27.000000


Initial Transient Solution
--------------------------

Node                                   Voltage
----                                   -------
1                                            0
8                                     -2.97092
6                                      5.47475
2                                      5.65515
3                                       17.385
5                                      4.83787
4                                            0
7                                     -2.00872
hvs#branch                        -0.000679016
vprobe#branch                      0.000961762
vc#branch                           0.00550078


No. of Data Rows : 2008

The file "trans_forc.ps" may be printed on a postscript printer.
trans_forc_FIG
********************************************
Frequency analysis
********************************************
Doing analysis at TEMP = 27.000000 and TNOM = 27.000000


No. of Data Rows : 91

The file "acm.ps" may be printed on a postscript printer.
acm_FIG

The file "acm_db.ps" may be printed on a postscript printer.
acm_db_FIG

The file "acph.ps" may be printed on a postscript printer.
acph_FIG
ngspice-31 done
