
Circuit: *

********************************************
Operating point
********************************************
Doing analysis at TEMP = 27.000000 and TNOM = 27.000000


No. of Data Rows : 1
op2_TAB
@gcs[i] = -2.04136e-04
@r1[i] = 1.945229e-04
@r2[i] = -2.04136e-04
@r3[i] = -9.61363e-06
@r4[i] = 1.156284e-03
@r5[i] = 2.041359e-04
@r6[i] = 9.617613e-04
@r7[i] = 9.617613e-04
v(1) = 5.008942e+00
v(2) = 4.808960e+00
v(3) = 4.394159e+00
v(4) = 0.000000e+00
v(5) = 4.837862e+00
v(6) = 5.474753e+00
v(7) = -2.00872e+00
v(8) = -2.97092e+00
hvs#branch = -9.61762e-04
v#branch = 6.131636e-10
vc#branch = -1.94523e-04
vprobe#branch = 9.617613e-04
op2_END
ngspice-31 done
