
Circuit: *

********************************************
Operating point
********************************************
Doing analysis at TEMP = 27.000000 and TNOM = 27.000000


No. of Data Rows : 1
op_TAB
@gcs[i] = 1.837491e-04
@id[current] = 1.033653e-03
@r1[i] = 1.924024e-04
@r2[i] = 1.837491e-04
@r3[i] = 8.653299e-06
@r4[i] = -1.14368e-03
@r5[i] = 8.499042e-04
@r6[i] = 9.512771e-04
@r7[i] = 9.512771e-04
v(1) = 5.008942e+00
v(2) = 4.811140e+00
v(3) = 4.437766e+00
v(4) = 0.000000e+00
v(5) = 4.785125e+00
v(6) = 2.133477e+00
v(7) = -1.98683e+00
v(8) = -2.93853e+00
hvs#branch = -1.98493e-03
va#branch = -1.92402e-04
vprobe#branch = 9.512771e-04
op_END
ngspice-31 done
